Test_Network/condensed/network_1/Feeder_2/Lines.txt
New Line.LINE65 Bus1=65 Bus2=66 phases=3 Linecode=4c_300_SAC Length=0.47332 Units=m
New Line.LINE67 Bus1=66 Bus2=68 phases=3 Linecode=4c_300_SAC Length=0.72048 Units=m
New Line.LINE70 Bus1=68 Bus2=71 phases=3 Linecode=4c_300_SAC Length=1.0686 Units=m
New Line.LINE73 Bus1=71 Bus2=74 phases=3 Linecode=4c_300_SAC Length=0.85425 Units=m
New Line.LINE76 Bus1=74 Bus2=77 phases=3 Linecode=4c_300_SAC Length=0.79964 Units=m
New Line.LINE79 Bus1=77 Bus2=80 phases=3 Linecode=4c_300_SAC Length=0.56945 Units=m
New Line.LINE82 Bus1=80 Bus2=83 phases=3 Linecode=4c_300_SAC Length=0.4081 Units=m
New Line.LINE84 Bus1=83 Bus2=85 phases=3 Linecode=4c_300_SAC Length=0.391 Units=m
New Line.LINE86 Bus1=85 Bus2=87 phases=3 Linecode=4c_300_SAC Length=0.36271 Units=m
New Line.LINE89 Bus1=87 Bus2=90 phases=3 Linecode=4c_300_SAC Length=0.9651 Units=m
New Line.LINE93 Bus1=90 Bus2=94 phases=3 Linecode=4c_300_SAC Length=1.0592 Units=m
New Line.LINE97 Bus1=94 Bus2=98 phases=3 Linecode=4c_300_SAC Length=5.4917 Units=m
New Line.LINE102 Bus1=98 Bus2=103 phases=3 Linecode=4c_300_SAC Length=3.9741 Units=m
New Line.LINE108 Bus1=103 Bus2=109 phases=3 Linecode=4c_300_SAC Length=6.2021 Units=m
New Line.LINE114 Bus1=109 Bus2=115 phases=3 Linecode=25_SAC_XC Length=18.6333 Units=m
New Line.LINE169 Bus1=165 Bus2=170 phases=3 Linecode=4c_.06 Length=2.1281 Units=m
New Line.LINE189 Bus1=183 Bus2=190 phases=3 Linecode=4c_.06 Length=4.0245 Units=m
New Line.LINE209 Bus1=201 Bus2=210 phases=3 Linecode=4c_.06 Length=12.6298 Units=m
New Line.LINE220 Bus1=210 Bus2=221 phases=3 Linecode=4c_.06 Length=3.3509 Units=m
New Line.LINE221 Bus1=211 Bus2=222 phases=3 Linecode=2c_.0225 Length=5.1057 Units=m
New Line.LINE222 Bus1=211 Bus2=223 phases=3 Linecode=2c_.0225 Length=5.1057 Units=m
New Line.LINE233 Bus1=221 Bus2=234 phases=3 Linecode=4c_.06 Length=3.6388 Units=m
New Line.LINE243 Bus1=234 Bus2=244 phases=3 Linecode=2c_.0225 Length=2.4762 Units=m
New Line.LINE250 Bus1=241 Bus2=251 phases=3 Linecode=2c_.0225 Length=6.7186 Units=m
New Line.LINE254 Bus1=244 Bus2=255 phases=3 Linecode=2c_.0225 Length=0.22672 Units=m
New Line.LINE265 Bus1=255 Bus2=266 phases=3 Linecode=2c_.0225 Length=0.32487 Units=m
New Line.LINE273 Bus1=263 Bus2=274 phases=3 Linecode=4c_.06 Length=7.6317 Units=m
New Line.LINE276 Bus1=266 Bus2=277 phases=3 Linecode=2c_.0225 Length=0.40594 Units=m
New Line.LINE277 Bus1=267 Bus2=278 phases=3 Linecode=2c_.0225 Length=4.4991 Units=m
New Line.LINE278 Bus1=267 Bus2=279 phases=3 Linecode=2c_.0225 Length=4.4991 Units=m
New Line.LINE288 Bus1=277 Bus2=289 phases=3 Linecode=2c_.0225 Length=1.2446 Units=m
New Line.LINE297 Bus1=289 Bus2=298 phases=3 Linecode=2c_.0225 Length=0.27461 Units=m
New Line.LINE305 Bus1=298 Bus2=306 phases=3 Linecode=2c_.0225 Length=0.22638 Units=m
New Line.LINE313 Bus1=306 Bus2=314 phases=3 Linecode=2c_.0225 Length=0.34976 Units=m
New Line.LINE318 Bus1=311 Bus2=319 phases=3 Linecode=2c_.04 Length=7.9319 Units=m
New Line.LINE321 Bus1=314 Bus2=322 phases=3 Linecode=2c_.0225 Length=3.8953 Units=m
New Line.LINE325 Bus1=319 Bus2=326 phases=3 Linecode=2c_.04 Length=5.3493 Units=m
New Line.LINE326 Bus1=319 Bus2=327 phases=3 Linecode=2c_.04 Length=5.3493 Units=m
New Line.LINE329 Bus1=322 Bus2=330 phases=3 Linecode=2c_.0225 Length=0.15988 Units=m
New Line.LINE335 Bus1=330 Bus2=336 phases=3 Linecode=2c_.0225 Length=0.21537 Units=m
New Line.LINE341 Bus1=336 Bus2=342 phases=3 Linecode=2c_.0225 Length=0.18832 Units=m
New Line.LINE347 Bus1=342 Bus2=348 phases=3 Linecode=2c_.0225 Length=0.21465 Units=m
New Line.LINE350 Bus1=344 Bus2=351 phases=3 Linecode=4c_.06 Length=13.1234 Units=m
New Line.LINE353 Bus1=348 Bus2=354 phases=3 Linecode=2c_.0225 Length=0.522 Units=m
New Line.LINE357 Bus1=351 Bus2=358 phases=3 Linecode=4c_.06 Length=3.0093 Units=m
New Line.LINE360 Bus1=354 Bus2=361 phases=3 Linecode=2c_.0225 Length=1.0967 Units=m
New Line.LINE361 Bus1=354 Bus2=362 phases=3 Linecode=2c_.0225 Length=1.0967 Units=m
New Line.LINE365 Bus1=358 Bus2=366 phases=3 Linecode=4c_.06 Length=2.8695 Units=m
New Line.LINE370 Bus1=366 Bus2=371 phases=3 Linecode=2c_.0225 Length=2.1311 Units=m
New Line.LINE376 Bus1=371 Bus2=377 phases=3 Linecode=2c_.0225 Length=0.51751 Units=m
New Line.LINE381 Bus1=377 Bus2=382 phases=3 Linecode=2c_.0225 Length=0.26011 Units=m
New Line.LINE386 Bus1=382 Bus2=387 phases=3 Linecode=2c_.0225 Length=0.2452 Units=m
New Line.LINE391 Bus1=387 Bus2=392 phases=3 Linecode=2c_.0225 Length=0.21019 Units=m
New Line.LINE397 Bus1=392 Bus2=398 phases=3 Linecode=2c_.0225 Length=0.44931 Units=m
New Line.LINE401 Bus1=398 Bus2=402 phases=3 Linecode=2c_.0225 Length=1.0331 Units=m
New Line.LINE404 Bus1=402 Bus2=405 phases=3 Linecode=2c_.0225 Length=0.77086 Units=m
New Line.LINE405 Bus1=403 Bus2=406 phases=3 Linecode=2c_.0225 Length=5.2004 Units=m
New Line.LINE408 Bus1=405 Bus2=409 phases=3 Linecode=2c_.0225 Length=0.36628 Units=m
New Line.LINE413 Bus1=409 Bus2=414 phases=3 Linecode=2c_.0225 Length=0.2531 Units=m
New Line.LINE418 Bus1=414 Bus2=419 phases=3 Linecode=2c_.0225 Length=0.30959 Units=m
New Line.LINE422 Bus1=419 Bus2=423 phases=3 Linecode=2c_.0225 Length=2.3991 Units=m
New Line.LINE425 Bus1=421 Bus2=426 phases=3 Linecode=2c_.0225 Length=5.2133 Units=m
New Line.LINE427 Bus1=423 Bus2=428 phases=3 Linecode=2c_.0225 Length=0.35512 Units=m
New Line.LINE434 Bus1=428 Bus2=435 phases=3 Linecode=2c_.0225 Length=0.17923 Units=m
New Line.LINE441 Bus1=435 Bus2=442 phases=3 Linecode=2c_.0225 Length=0.066468 Units=m
New Line.LINE447 Bus1=442 Bus2=448 phases=3 Linecode=2c_.0225 Length=0.14863 Units=m
New Line.LINE451 Bus1=448 Bus2=452 phases=3 Linecode=2c_.0225 Length=0.611 Units=m
New Line.LINE454 Bus1=452 Bus2=455 phases=3 Linecode=2c_.0225 Length=5.158 Units=m
New Line.LINE455 Bus1=452 Bus2=456 phases=3 Linecode=2c_.0225 Length=5.158 Units=m
New Line.LINE471 Bus1=471 Bus2=472 phases=3 Linecode=4c_.06 Length=2.6474 Units=m
New Line.LINE475 Bus1=472 Bus2=476 phases=3 Linecode=2c_.0225 Length=6.5334 Units=m
New Line.LINE478 Bus1=476 Bus2=479 phases=3 Linecode=2c_.0225 Length=5.2894 Units=m
New Line.LINECmpd_0 Bus1=251 Bus2=317 phases=3 Linecode=2c_.0225 Length=7.66833 Units=m
New Line.LINECmpd_1 Bus1=1 Bus2=65 phases=3 Linecode=4c_70 Length=76.306289 Units=m
New Line.LINECmpd_2 Bus1=251 Bus2=271 phases=3 Linecode=2c_.0225 Length=5.9651 Units=m
New Line.LINECmpd_3 Bus1=190 Bus2=344 phases=3 Linecode=4c_.06 Length=28.22103 Units=m
New Line.LINECmpd_4 Bus1=457 Bus2=471 phases=3 Linecode=4c_.06 Length=12.646 Units=m
New Line.LINECmpd_5 Bus1=100 Bus2=199 phases=3 Linecode=4c_.06 Length=12.785968 Units=m
New Line.LINECmpd_6 Bus1=65 Bus2=100 phases=3 Linecode=4c_.1 Length=42.60539 Units=m
New Line.LINECmpd_7 Bus1=241 Bus2=263 phases=3 Linecode=4c_.06 Length=12.4264 Units=m
New Line.LINECmpd_8 Bus1=311 Bus2=388 phases=3 Linecode=4c_.06 Length=18.40222 Units=m
New Line.LINECmpd_9 Bus1=274 Bus2=345 phases=3 Linecode=2c_.0225 Length=14.19401 Units=m
New Line.LINECmpd_10 Bus1=457 Bus2=469 phases=3 Linecode=2c_.0225 Length=11.26687 Units=m
New Line.LINECmpd_11 Bus1=263 Bus2=284 phases=3 Linecode=2c_.0225 Length=13.2476 Units=m
New Line.LINECmpd_12 Bus1=165 Bus2=211 phases=3 Linecode=2c_.0225 Length=10.89 Units=m
New Line.LINECmpd_13 Bus1=183 Bus2=196 phases=3 Linecode=2c_.0225 Length=12.5884 Units=m
New Line.LINECmpd_14 Bus1=403 Bus2=421 phases=3 Linecode=4c_.06 Length=14.6645 Units=m
New Line.LINECmpd_15 Bus1=199 Bus2=332 phases=3 Linecode=2c_.0225 Length=18.12726 Units=m
New Line.LINECmpd_16 Bus1=426 Bus2=461 phases=3 Linecode=2c_.0225 Length=7.355172 Units=m
New Line.LINECmpd_17 Bus1=274 Bus2=311 phases=3 Linecode=4c_.06 Length=15.5397 Units=m
New Line.LINECmpd_18 Bus1=190 Bus2=267 phases=3 Linecode=2c_.0225 Length=10.1129 Units=m
New Line.LINECmpd_19 Bus1=143 Bus2=201 phases=3 Linecode=4c_.06 Length=18.50579 Units=m
New Line.LINECmpd_20 Bus1=421 Bus2=457 phases=3 Linecode=4c_.06 Length=16.0484 Units=m
New Line.LINECmpd_21 Bus1=406 Bus2=415 phases=3 Linecode=2c_.0225 Length=6.48941 Units=m
New Line.LINECmpd_22 Bus1=351 Bus2=364 phases=3 Linecode=2c_.0225 Length=12.2431 Units=m
New Line.LINECmpd_23 Bus1=388 Bus2=399 phases=3 Linecode=2c_.0225 Length=10.1249 Units=m
New Line.LINECmpd_24 Bus1=199 Bus2=217 phases=3 Linecode=4c_.06 Length=3.4967 Units=m
New Line.LINECmpd_25 Bus1=406 Bus2=443 phases=3 Linecode=2c_.0225 Length=7.05925 Units=m
New Line.LINECmpd_26 Bus1=426 Bus2=440 phases=3 Linecode=2c_.0225 Length=6.337 Units=m
New Line.LINECmpd_27 Bus1=471 Bus2=477 phases=3 Linecode=2c_.0225 Length=11.8922 Units=m
New Line.LINECmpd_28 Bus1=100 Bus2=143 phases=3 Linecode=4c_.1 Length=18.14295 Units=m
New Line.LINECmpd_29 Bus1=217 Bus2=240 phases=3 Linecode=2c_.0225 Length=13.0289 Units=m
New Line.LINECmpd_30 Bus1=388 Bus2=403 phases=3 Linecode=4c_.06 Length=12.2146 Units=m
New Line.LINECmpd_31 Bus1=217 Bus2=241 phases=3 Linecode=4c_.06 Length=13.9863 Units=m
New Line.LINECmpd_32 Bus1=143 Bus2=165 phases=3 Linecode=4c_.06 Length=11.99209 Units=m
New Line.LINECmpd_33 Bus1=344 Bus2=356 phases=3 Linecode=2c_.0225 Length=12.4233 Units=m
New Line.LINECmpd_34 Bus1=201 Bus2=219 phases=3 Linecode=2c_.0225 Length=12.9803 Units=m
New Line.LINECmpd_35 Bus1=210 Bus2=232 phases=3 Linecode=2c_.0225 Length=11.8998 Units=m
New Line.LINECmpd_36 Bus1=170 Bus2=183 phases=3 Linecode=4c_.06 Length=13.1947 Units=m
New Line.LINECmpd_37 Bus1=170 Bus2=181 phases=3 Linecode=2c_.0225 Length=14.7847 Units=m
